*SPEF "ieee 1481-1999"
*DESIGN "rgb_mixer"
*DATE "11:11:11 Fri 11 11, 1111"
*VENDOR "OpenRCX"
*PROGRAM "Parallel Extraction"
*VERSION "1.0"
*DESIGN_FLOW "NAME_SCOPE LOCAL" "PIN_CAP NONE"
*DIVIDER /
*DELIMITER :
*BUS_DELIMITER []
*T_UNIT 1 NS
*C_UNIT 1 PF
*R_UNIT 1 OHM
*L_UNIT 1 HENRY

*NAME_MAP
*1 clk
*2 enc0_a
*3 enc0_b
*4 enc1_a
*5 enc1_b
*6 enc2_a
*7 enc2_b
*8 net28
*9 net29
*10 net30
*11 net31
*12 pwm0_out
*13 pwm1_out
*14 pwm2_out
*15 reset
*16 sync
*19 _000_
*20 _001_
*21 _002_
*22 _003_
*23 _004_
*24 _005_
*25 _006_
*26 _007_
*27 _008_
*28 _009_
*29 _010_
*30 _011_
*31 _012_
*32 _013_
*33 _014_
*34 _015_
*35 _016_
*36 _017_
*37 _018_
*38 _019_
*39 _020_
*40 _021_
*41 _022_
*42 _023_
*43 _024_
*44 _025_
*45 _026_
*46 _027_
*47 _028_
*48 _029_
*49 _030_
*50 _031_
*51 _032_
*52 _033_
*53 _034_
*54 _035_
*55 _036_
*56 _037_
*57 _038_
*58 _039_
*59 _040_
*60 _041_
*61 _042_
*62 _043_
*63 _044_
*64 _045_
*65 _046_
*66 _047_
*67 _048_
*68 _049_
*69 _050_
*70 _051_
*71 _052_
*72 _053_
*73 _054_
*74 _055_
*75 _056_
*76 _057_
*77 _058_
*78 _059_
*79 _060_
*80 _061_
*81 _062_
*82 _063_
*83 _064_
*84 _065_
*85 _066_
*86 _067_
*87 _068_
*88 _069_
*89 _070_
*90 _071_
*91 _072_
*92 _073_
*93 _074_
*94 _075_
*95 _076_
*96 _077_
*97 _078_
*98 _079_
*99 _080_
*100 _081_
*101 _082_
*102 _083_
*103 _084_
*104 _085_
*105 _086_
*106 _087_
*107 _088_
*108 _089_
*109 _090_
*110 _091_
*111 _092_
*112 _093_
*113 _094_
*114 _095_
*115 _096_
*116 _097_
*117 _098_
*118 _099_
*119 _100_
*120 _101_
*121 _102_
*122 _103_
*123 _104_
*124 _105_
*125 _106_
*126 _107_
*127 _108_
*128 _109_
*129 _110_
*130 _111_
*131 _112_
*132 _113_
*133 _114_
*134 _115_
*135 _116_
*136 _117_
*137 _118_
*138 _119_
*139 _120_
*140 _121_
*141 _122_
*142 _123_
*143 _124_
*144 _125_
*145 _126_
*146 _127_
*147 _128_
*148 _129_
*149 _130_
*150 _131_
*151 _132_
*152 _133_
*153 _134_
*154 _135_
*155 _136_
*156 _137_
*157 _138_
*158 _139_
*159 _140_
*160 _141_
*161 _142_
*162 _143_
*163 _144_
*164 _145_
*165 _146_
*166 _147_
*167 _148_
*168 _149_
*169 _150_
*170 _151_
*171 _152_
*172 _153_
*173 _154_
*174 _155_
*175 _156_
*176 _157_
*177 _158_
*178 _159_
*179 _160_
*180 _161_
*181 _162_
*182 _163_
*183 _164_
*184 _165_
*185 _166_
*186 _167_
*187 _168_
*188 _169_
*189 _170_
*190 _171_
*191 _172_
*192 _173_
*193 _174_
*194 _175_
*195 _176_
*196 _177_
*197 _178_
*198 _179_
*199 _180_
*200 _181_
*201 _182_
*202 _183_
*203 _184_
*204 _185_
*205 _186_
*206 _187_
*207 _188_
*208 _189_
*209 _190_
*210 _191_
*211 _192_
*212 _193_
*213 _194_
*214 _195_
*215 _196_
*216 _197_
*217 _198_
*218 _199_
*219 _200_
*220 _201_
*221 _202_
*222 _203_
*223 _204_
*224 _205_
*225 _206_
*226 _207_
*227 _208_
*228 _209_
*229 _210_
*230 _211_
*231 _212_
*232 _213_
*233 _214_
*234 _215_
*235 _216_
*236 _217_
*237 _218_
*238 _219_
*239 _220_
*240 _221_
*241 _222_
*242 _223_
*243 _224_
*244 _225_
*245 _226_
*246 _227_
*247 _228_
*248 _229_
*249 _230_
*250 _231_
*251 _232_
*252 _233_
*253 _234_
*254 _235_
*255 _236_
*256 _237_
*257 _238_
*258 _239_
*259 _240_
*260 _241_
*261 _242_
*262 _243_
*263 _244_
*264 _245_
*265 _246_
*266 _247_
*267 _248_
*268 _249_
*269 _250_
*270 _251_
*271 _252_
*272 _253_
*273 _254_
*274 _255_
*275 _256_
*276 _257_
*277 _258_
*278 _259_
*279 _260_
*280 _261_
*281 _262_
*282 _263_
*283 _264_
*284 _265_
*285 _266_
*286 _267_
*287 _268_
*288 _269_
*289 _270_
*290 _271_
*291 _272_
*292 _273_
*293 _274_
*294 _275_
*295 _276_
*296 _277_
*297 _278_
*298 _279_
*299 _280_
*300 _281_
*301 _282_
*302 _283_
*303 _284_
*304 _285_
*305 _286_
*306 _287_
*307 _288_
*308 _289_
*309 _290_
*310 _291_
*311 _292_
*312 _293_
*313 _294_
*314 _295_
*315 _296_
*316 _297_
*317 _298_
*318 _299_
*319 _300_
*320 _301_
*321 _302_
*322 _303_
*323 _304_
*324 _305_
*325 _306_
*326 _307_
*327 _308_
*328 _309_
*329 _310_
*330 _311_
*331 _312_
*332 _313_
*333 _314_
*334 _315_
*335 _316_
*336 _317_
*337 _318_
*338 _319_
*339 _320_
*340 _321_
*341 _322_
*342 _323_
*343 _324_
*344 _325_
*345 _326_
*346 _327_
*347 _328_
*348 _329_
*349 _330_
*350 _331_
*351 _332_
*352 _333_
*353 _334_
*354 _335_
*355 _336_
*356 _337_
*357 _338_
*358 _339_
*359 _340_
*360 _341_
*361 _342_
*362 _343_
*363 _344_
*364 _345_
*365 _346_
*366 _347_
*367 _348_
*368 _349_
*369 _350_
*370 _351_
*371 _352_
*372 _353_
*373 _354_
*374 _355_
*375 _356_
*376 _357_
*377 _358_
*378 _359_
*379 _360_
*380 _361_
*381 _362_
*382 _363_
*383 _364_
*384 _365_
*385 _366_
*386 _367_
*387 _368_
*388 _369_
*389 _370_
*390 _371_
*391 _372_
*392 _373_
*393 _374_
*394 _375_
*395 _376_
*396 _377_
*397 _378_
*398 _379_
*399 _380_
*400 _381_
*401 _382_
*402 _383_
*403 _384_
*404 _385_
*405 _386_
*406 _387_
*407 _388_
*408 _389_
*409 _390_
*410 _391_
*411 _392_
*412 _393_
*413 _394_
*414 _395_
*415 _396_
*416 _397_
*417 _398_
*418 _399_
*419 _400_
*420 _401_
*421 _402_
*422 _403_
*423 _404_
*424 _405_
*425 _406_
*426 _407_
*427 _408_
*428 _409_
*429 _410_
*430 _411_
*431 _412_
*432 _413_
*433 _414_
*434 _415_
*435 _416_
*436 _417_
*437 _418_
*438 _419_
*439 _420_
*440 _421_
*441 _422_
*442 _423_
*443 _424_
*444 _425_
*445 debounce0_a\.button_hist\[0\]
*446 debounce0_a\.button_hist\[1\]
*447 debounce0_a\.button_hist\[2\]
*448 debounce0_a\.button_hist\[3\]
*449 debounce0_a\.button_hist\[4\]
*450 debounce0_a\.button_hist\[5\]
*451 debounce0_a\.button_hist\[6\]
*452 debounce0_a\.button_hist\[7\]
*453 debounce0_a\.debounced
*454 debounce0_a\.reset
*455 debounce0_b\.button_hist\[0\]
*456 debounce0_b\.button_hist\[1\]
*457 debounce0_b\.button_hist\[2\]
*458 debounce0_b\.button_hist\[3\]
*459 debounce0_b\.button_hist\[4\]
*460 debounce0_b\.button_hist\[5\]
*461 debounce0_b\.button_hist\[6\]
*462 debounce0_b\.button_hist\[7\]
*463 debounce0_b\.debounced
*464 debounce1_a\.button_hist\[0\]
*465 debounce1_a\.button_hist\[1\]
*466 debounce1_a\.button_hist\[2\]
*467 debounce1_a\.button_hist\[3\]
*468 debounce1_a\.button_hist\[4\]
*469 debounce1_a\.button_hist\[5\]
*470 debounce1_a\.button_hist\[6\]
*471 debounce1_a\.button_hist\[7\]
*472 debounce1_a\.debounced
*473 debounce1_b\.button_hist\[0\]
*474 debounce1_b\.button_hist\[1\]
*475 debounce1_b\.button_hist\[2\]
*476 debounce1_b\.button_hist\[3\]
*477 debounce1_b\.button_hist\[4\]
*478 debounce1_b\.button_hist\[5\]
*479 debounce1_b\.button_hist\[6\]
*480 debounce1_b\.button_hist\[7\]
*481 debounce1_b\.debounced
*482 debounce2_a\.button_hist\[0\]
*483 debounce2_a\.button_hist\[1\]
*484 debounce2_a\.button_hist\[2\]
*485 debounce2_a\.button_hist\[3\]
*486 debounce2_a\.button_hist\[4\]
*487 debounce2_a\.button_hist\[5\]
*488 debounce2_a\.button_hist\[6\]
*489 debounce2_a\.button_hist\[7\]
*490 debounce2_a\.debounced
*491 debounce2_b\.button_hist\[0\]
*492 debounce2_b\.button_hist\[1\]
*493 debounce2_b\.button_hist\[2\]
*494 debounce2_b\.button_hist\[3\]
*495 debounce2_b\.button_hist\[4\]
*496 debounce2_b\.button_hist\[5\]
*497 debounce2_b\.button_hist\[6\]
*498 debounce2_b\.button_hist\[7\]
*499 debounce2_b\.debounced
*500 encoder0\.old_a
*501 encoder0\.old_b
*502 encoder0\.value\[0\]
*503 encoder0\.value\[1\]
*504 encoder0\.value\[2\]
*505 encoder0\.value\[3\]
*506 encoder0\.value\[4\]
*507 encoder0\.value\[5\]
*508 encoder0\.value\[6\]
*509 encoder0\.value\[7\]
*510 encoder1\.old_a
*511 encoder1\.old_b
*512 encoder1\.value\[0\]
*513 encoder1\.value\[1\]
*514 encoder1\.value\[2\]
*515 encoder1\.value\[3\]
*516 encoder1\.value\[4\]
*517 encoder1\.value\[5\]
*518 encoder1\.value\[6\]
*519 encoder1\.value\[7\]
*520 encoder2\.old_a
*521 encoder2\.old_b
*522 encoder2\.value\[0\]
*523 encoder2\.value\[1\]
*524 encoder2\.value\[2\]
*525 encoder2\.value\[3\]
*526 encoder2\.value\[4\]
*527 encoder2\.value\[5\]
*528 encoder2\.value\[6\]
*529 encoder2\.value\[7\]
*530 net1
*531 net10
*532 net11
*533 net12
*534 net13
*535 net14
*536 net15
*537 net16
*538 net17
*539 net18
*540 net19
*541 net2
*542 net20
*543 net21
*544 net22
*545 net23
*546 net24
*547 net25
*548 net26
*549 net27
*550 net3
*551 net4
*552 net5
*553 net6
*554 net7
*555 net8
*556 net9
*557 pwm0\.count\[0\]
*558 pwm0\.count\[1\]
*559 pwm0\.count\[2\]
*560 pwm0\.count\[3\]
*561 pwm0\.count\[4\]
*562 pwm0\.count\[5\]
*563 pwm0\.count\[6\]
*564 pwm0\.count\[7\]
*565 pwm1\.count\[0\]
*566 pwm1\.count\[1\]
*567 pwm1\.count\[2\]
*568 pwm1\.count\[3\]
*569 pwm1\.count\[4\]
*570 pwm1\.count\[5\]
*571 pwm1\.count\[6\]
*572 pwm1\.count\[7\]
*573 pwm2\.count\[0\]
*574 pwm2\.count\[1\]
*575 pwm2\.count\[2\]
*576 pwm2\.count\[3\]
*577 pwm2\.count\[4\]
*578 pwm2\.count\[5\]
*579 pwm2\.count\[6\]
*580 pwm2\.count\[7\]
*581 FILLER_0_0_102
*582 FILLER_0_0_110
*583 FILLER_0_0_113
*584 FILLER_0_0_125
*585 FILLER_0_0_13
*586 FILLER_0_0_137
*587 FILLER_0_0_141
*588 FILLER_0_0_153
*589 FILLER_0_0_165
*590 FILLER_0_0_169
*591 FILLER_0_0_181
*592 FILLER_0_0_193
*593 FILLER_0_0_203
*594 FILLER_0_0_215
*595 FILLER_0_0_223
*596 FILLER_0_0_225
*597 FILLER_0_0_237
*598 FILLER_0_0_249
*599 FILLER_0_0_25
*600 FILLER_0_0_253
*601 FILLER_0_0_265
*602 FILLER_0_0_277
*603 FILLER_0_0_281
*604 FILLER_0_0_29
*605 FILLER_0_0_293
*606 FILLER_0_0_300
*607 FILLER_0_0_309
*608 FILLER_0_0_321
*609 FILLER_0_0_333
*610 FILLER_0_0_337
*611 FILLER_0_0_349
*612 FILLER_0_0_41
*613 FILLER_0_0_53
*614 FILLER_0_0_57
*615 FILLER_0_0_69
*616 FILLER_0_0_81
*617 FILLER_0_0_85
*618 FILLER_0_0_90
*619 FILLER_0_10_109
*620 FILLER_0_10_121
*621 FILLER_0_10_133
*622 FILLER_0_10_139
*623 FILLER_0_10_141
*624 FILLER_0_10_15
*625 FILLER_0_10_153
*626 FILLER_0_10_165
*627 FILLER_0_10_177
*628 FILLER_0_10_189
*629 FILLER_0_10_195
*630 FILLER_0_10_197
*631 FILLER_0_10_209
*632 FILLER_0_10_221
*633 FILLER_0_10_233
*634 FILLER_0_10_245
*635 FILLER_0_10_251
*636 FILLER_0_10_253
*637 FILLER_0_10_265
*638 FILLER_0_10_27
*639 FILLER_0_10_277
*640 FILLER_0_10_289
*641 FILLER_0_10_29
*642 FILLER_0_10_3
*643 FILLER_0_10_301
*644 FILLER_0_10_307
*645 FILLER_0_10_309
*646 FILLER_0_10_321
*647 FILLER_0_10_333
*648 FILLER_0_10_345
*649 FILLER_0_10_357
*650 FILLER_0_10_363
*651 FILLER_0_10_41
*652 FILLER_0_10_53
*653 FILLER_0_10_65
*654 FILLER_0_10_77
*655 FILLER_0_10_83
*656 FILLER_0_10_85
*657 FILLER_0_10_97
*658 FILLER_0_11_105
*659 FILLER_0_11_111
*660 FILLER_0_11_113
*661 FILLER_0_11_125
*662 FILLER_0_11_137
*663 FILLER_0_11_149
*664 FILLER_0_11_15
*665 FILLER_0_11_161
*666 FILLER_0_11_167
*667 FILLER_0_11_169
*668 FILLER_0_11_181
*669 FILLER_0_11_193
*670 FILLER_0_11_205
*671 FILLER_0_11_217
*672 FILLER_0_11_223
*673 FILLER_0_11_225
*674 FILLER_0_11_237
*675 FILLER_0_11_249
*676 FILLER_0_11_261
*677 FILLER_0_11_27
*678 FILLER_0_11_273
*679 FILLER_0_11_279
*680 FILLER_0_11_281
*681 FILLER_0_11_293
*682 FILLER_0_11_3
*683 FILLER_0_11_305
*684 FILLER_0_11_317
*685 FILLER_0_11_329
*686 FILLER_0_11_335
*687 FILLER_0_11_337
*688 FILLER_0_11_349
*689 FILLER_0_11_361
*690 FILLER_0_11_39
*691 FILLER_0_11_51
*692 FILLER_0_11_55
*693 FILLER_0_11_57
*694 FILLER_0_11_69
*695 FILLER_0_11_81
*696 FILLER_0_11_93
*697 FILLER_0_12_109
*698 FILLER_0_12_121
*699 FILLER_0_12_133
*700 FILLER_0_12_139
*701 FILLER_0_12_141
*702 FILLER_0_12_15
*703 FILLER_0_12_153
*704 FILLER_0_12_165
*705 FILLER_0_12_177
*706 FILLER_0_12_189
*707 FILLER_0_12_195
*708 FILLER_0_12_197
*709 FILLER_0_12_209
*710 FILLER_0_12_221
*711 FILLER_0_12_233
*712 FILLER_0_12_245
*713 FILLER_0_12_251
*714 FILLER_0_12_253
*715 FILLER_0_12_265
*716 FILLER_0_12_27
*717 FILLER_0_12_277
*718 FILLER_0_12_289
*719 FILLER_0_12_29
*720 FILLER_0_12_3
*721 FILLER_0_12_301
*722 FILLER_0_12_307
*723 FILLER_0_12_309
*724 FILLER_0_12_321
*725 FILLER_0_12_333
*726 FILLER_0_12_345
*727 FILLER_0_12_357
*728 FILLER_0_12_363
*729 FILLER_0_12_41
*730 FILLER_0_12_53
*731 FILLER_0_12_65
*732 FILLER_0_12_77
*733 FILLER_0_12_83
*734 FILLER_0_12_85
*735 FILLER_0_12_97
*736 FILLER_0_13_105
*737 FILLER_0_13_111
*738 FILLER_0_13_113
*739 FILLER_0_13_125
*740 FILLER_0_13_137
*741 FILLER_0_13_149
*742 FILLER_0_13_15
*743 FILLER_0_13_161
*744 FILLER_0_13_167
*745 FILLER_0_13_169
*746 FILLER_0_13_181
*747 FILLER_0_13_193
*748 FILLER_0_13_205
*749 FILLER_0_13_217
*750 FILLER_0_13_223
*751 FILLER_0_13_225
*752 FILLER_0_13_237
*753 FILLER_0_13_249
*754 FILLER_0_13_261
*755 FILLER_0_13_27
*756 FILLER_0_13_273
*757 FILLER_0_13_279
*758 FILLER_0_13_281
*759 FILLER_0_13_293
*760 FILLER_0_13_3
*761 FILLER_0_13_305
*762 FILLER_0_13_317
*763 FILLER_0_13_329
*764 FILLER_0_13_335
*765 FILLER_0_13_337
*766 FILLER_0_13_349
*767 FILLER_0_13_361
*768 FILLER_0_13_39
*769 FILLER_0_13_51
*770 FILLER_0_13_55
*771 FILLER_0_13_57
*772 FILLER_0_13_69
*773 FILLER_0_13_81
*774 FILLER_0_13_93
*775 FILLER_0_14_109
*776 FILLER_0_14_121
*777 FILLER_0_14_133
*778 FILLER_0_14_139
*779 FILLER_0_14_141
*780 FILLER_0_14_153
*781 FILLER_0_14_165
*782 FILLER_0_14_177
*783 FILLER_0_14_18
*784 FILLER_0_14_189
*785 FILLER_0_14_195
*786 FILLER_0_14_197
*787 FILLER_0_14_209
*788 FILLER_0_14_221
*789 FILLER_0_14_233
*790 FILLER_0_14_245
*791 FILLER_0_14_251
*792 FILLER_0_14_253
*793 FILLER_0_14_26
*794 FILLER_0_14_265
*795 FILLER_0_14_277
*796 FILLER_0_14_289
*797 FILLER_0_14_29
*798 FILLER_0_14_301
*799 FILLER_0_14_307
*800 FILLER_0_14_309
*801 FILLER_0_14_321
*802 FILLER_0_14_333
*803 FILLER_0_14_345
*804 FILLER_0_14_357
*805 FILLER_0_14_363
*806 FILLER_0_14_41
*807 FILLER_0_14_53
*808 FILLER_0_14_6
*809 FILLER_0_14_65
*810 FILLER_0_14_77
*811 FILLER_0_14_83
*812 FILLER_0_14_85
*813 FILLER_0_14_97
*814 FILLER_0_15_105
*815 FILLER_0_15_111
*816 FILLER_0_15_113
*817 FILLER_0_15_125
*818 FILLER_0_15_137
*819 FILLER_0_15_149
*820 FILLER_0_15_15
*821 FILLER_0_15_161
*822 FILLER_0_15_167
*823 FILLER_0_15_169
*824 FILLER_0_15_181
*825 FILLER_0_15_193
*826 FILLER_0_15_205
*827 FILLER_0_15_217
*828 FILLER_0_15_223
*829 FILLER_0_15_225
*830 FILLER_0_15_237
*831 FILLER_0_15_249
*832 FILLER_0_15_261
*833 FILLER_0_15_27
*834 FILLER_0_15_273
*835 FILLER_0_15_279
*836 FILLER_0_15_281
*837 FILLER_0_15_293
*838 FILLER_0_15_3
*839 FILLER_0_15_305
*840 FILLER_0_15_317
*841 FILLER_0_15_329
*842 FILLER_0_15_335
*843 FILLER_0_15_337
*844 FILLER_0_15_349
*845 FILLER_0_15_361
*846 FILLER_0_15_39
*847 FILLER_0_15_51
*848 FILLER_0_15_55
*849 FILLER_0_15_57
*850 FILLER_0_15_69
*851 FILLER_0_15_81
*852 FILLER_0_15_93
*853 FILLER_0_16_109
*854 FILLER_0_16_121
*855 FILLER_0_16_133
*856 FILLER_0_16_139
*857 FILLER_0_16_141
*858 FILLER_0_16_15
*859 FILLER_0_16_153
*860 FILLER_0_16_165
*861 FILLER_0_16_177
*862 FILLER_0_16_189
*863 FILLER_0_16_195
*864 FILLER_0_16_197
*865 FILLER_0_16_209
*866 FILLER_0_16_221
*867 FILLER_0_16_233
*868 FILLER_0_16_245
*869 FILLER_0_16_251
*870 FILLER_0_16_253
*871 FILLER_0_16_265
*872 FILLER_0_16_27
*873 FILLER_0_16_277
*874 FILLER_0_16_289
*875 FILLER_0_16_29
*876 FILLER_0_16_3
*877 FILLER_0_16_301
*878 FILLER_0_16_307
*879 FILLER_0_16_309
*880 FILLER_0_16_321
*881 FILLER_0_16_333
*882 FILLER_0_16_345
*883 FILLER_0_16_357
*884 FILLER_0_16_363
*885 FILLER_0_16_41
*886 FILLER_0_16_53
*887 FILLER_0_16_65
*888 FILLER_0_16_77
*889 FILLER_0_16_83
*890 FILLER_0_16_85
*891 FILLER_0_16_97
*892 FILLER_0_17_105
*893 FILLER_0_17_111
*894 FILLER_0_17_113
*895 FILLER_0_17_125
*896 FILLER_0_17_137
*897 FILLER_0_17_149
*898 FILLER_0_17_15
*899 FILLER_0_17_161
*900 FILLER_0_17_167
*901 FILLER_0_17_169
*902 FILLER_0_17_181
*903 FILLER_0_17_193
*904 FILLER_0_17_205
*905 FILLER_0_17_217
*906 FILLER_0_17_223
*907 FILLER_0_17_225
*908 FILLER_0_17_237
*909 FILLER_0_17_249
*910 FILLER_0_17_261
*911 FILLER_0_17_27
*912 FILLER_0_17_273
*913 FILLER_0_17_279
*914 FILLER_0_17_281
*915 FILLER_0_17_293
*916 FILLER_0_17_3
*917 FILLER_0_17_305
*918 FILLER_0_17_317
*919 FILLER_0_17_329
*920 FILLER_0_17_335
*921 FILLER_0_17_337
*922 FILLER_0_17_349
*923 FILLER_0_17_357
*924 FILLER_0_17_39
*925 FILLER_0_17_51
*926 FILLER_0_17_55
*927 FILLER_0_17_57
*928 FILLER_0_17_69
*929 FILLER_0_17_81
*930 FILLER_0_17_93
*931 FILLER_0_18_109
*932 FILLER_0_18_121
*933 FILLER_0_18_133
*934 FILLER_0_18_139
*935 FILLER_0_18_141
*936 FILLER_0_18_15
*937 FILLER_0_18_153
*938 FILLER_0_18_165
*939 FILLER_0_18_177
*940 FILLER_0_18_189
*941 FILLER_0_18_195
*942 FILLER_0_18_197
*943 FILLER_0_18_209
*944 FILLER_0_18_221
*945 FILLER_0_18_233
*946 FILLER_0_18_245
*947 FILLER_0_18_251
*948 FILLER_0_18_253
*949 FILLER_0_18_265
*950 FILLER_0_18_27
*951 FILLER_0_18_277
*952 FILLER_0_18_289
*953 FILLER_0_18_29
*954 FILLER_0_18_3
*955 FILLER_0_18_301
*956 FILLER_0_18_307
*957 FILLER_0_18_309
*958 FILLER_0_18_321
*959 FILLER_0_18_333
*960 FILLER_0_18_345
*961 FILLER_0_18_360
*962 FILLER_0_18_41
*963 FILLER_0_18_53
*964 FILLER_0_18_65
*965 FILLER_0_18_77
*966 FILLER_0_18_83
*967 FILLER_0_18_85
*968 FILLER_0_18_97
*969 FILLER_0_19_105
*970 FILLER_0_19_111
*971 FILLER_0_19_113
*972 FILLER_0_19_125
*973 FILLER_0_19_137
*974 FILLER_0_19_149
*975 FILLER_0_19_15
*976 FILLER_0_19_161
*977 FILLER_0_19_167
*978 FILLER_0_19_169
*979 FILLER_0_19_181
*980 FILLER_0_19_193
*981 FILLER_0_19_205
*982 FILLER_0_19_217
*983 FILLER_0_19_223
*984 FILLER_0_19_225
*985 FILLER_0_19_237
*986 FILLER_0_19_249
*987 FILLER_0_19_261
*988 FILLER_0_19_27
*989 FILLER_0_19_273
*990 FILLER_0_19_279
*991 FILLER_0_19_281
*992 FILLER_0_19_293
*993 FILLER_0_19_3
*994 FILLER_0_19_305
*995 FILLER_0_19_317
*996 FILLER_0_19_329
*997 FILLER_0_19_335
*998 FILLER_0_19_337
*999 FILLER_0_19_349
*1000 FILLER_0_19_361
*1001 FILLER_0_19_39
*1002 FILLER_0_19_51
*1003 FILLER_0_19_55
*1004 FILLER_0_19_57
*1005 FILLER_0_19_69
*1006 FILLER_0_19_81
*1007 FILLER_0_19_93
*1008 FILLER_0_1_105
*1009 FILLER_0_1_111
*1010 FILLER_0_1_113
*1011 FILLER_0_1_125
*1012 FILLER_0_1_137
*1013 FILLER_0_1_149
*1014 FILLER_0_1_15
*1015 FILLER_0_1_161
*1016 FILLER_0_1_167
*1017 FILLER_0_1_169
*1018 FILLER_0_1_181
*1019 FILLER_0_1_193
*1020 FILLER_0_1_205
*1021 FILLER_0_1_217
*1022 FILLER_0_1_223
*1023 FILLER_0_1_225
*1024 FILLER_0_1_237
*1025 FILLER_0_1_249
*1026 FILLER_0_1_261
*1027 FILLER_0_1_27
*1028 FILLER_0_1_273
*1029 FILLER_0_1_279
*1030 FILLER_0_1_281
*1031 FILLER_0_1_293
*1032 FILLER_0_1_3
*1033 FILLER_0_1_305
*1034 FILLER_0_1_317
*1035 FILLER_0_1_329
*1036 FILLER_0_1_335
*1037 FILLER_0_1_337
*1038 FILLER_0_1_349
*1039 FILLER_0_1_361
*1040 FILLER_0_1_39
*1041 FILLER_0_1_51
*1042 FILLER_0_1_55
*1043 FILLER_0_1_57
*1044 FILLER_0_1_69
*1045 FILLER_0_1_81
*1046 FILLER_0_1_93
*1047 FILLER_0_20_109
*1048 FILLER_0_20_121
*1049 FILLER_0_20_133
*1050 FILLER_0_20_139
*1051 FILLER_0_20_141
*1052 FILLER_0_20_15
*1053 FILLER_0_20_153
*1054 FILLER_0_20_165
*1055 FILLER_0_20_177
*1056 FILLER_0_20_189
*1057 FILLER_0_20_195
*1058 FILLER_0_20_197
*1059 FILLER_0_20_209
*1060 FILLER_0_20_221
*1061 FILLER_0_20_233
*1062 FILLER_0_20_245
*1063 FILLER_0_20_251
*1064 FILLER_0_20_253
*1065 FILLER_0_20_265
*1066 FILLER_0_20_27
*1067 FILLER_0_20_277
*1068 FILLER_0_20_289
*1069 FILLER_0_20_29
*1070 FILLER_0_20_3
*1071 FILLER_0_20_301
*1072 FILLER_0_20_307
*1073 FILLER_0_20_309
*1074 FILLER_0_20_321
*1075 FILLER_0_20_333
*1076 FILLER_0_20_345
*1077 FILLER_0_20_357
*1078 FILLER_0_20_363
*1079 FILLER_0_20_41
*1080 FILLER_0_20_53
*1081 FILLER_0_20_65
*1082 FILLER_0_20_77
*1083 FILLER_0_20_83
*1084 FILLER_0_20_85
*1085 FILLER_0_20_97
*1086 FILLER_0_21_105
*1087 FILLER_0_21_111
*1088 FILLER_0_21_113
*1089 FILLER_0_21_125
*1090 FILLER_0_21_137
*1091 FILLER_0_21_149
*1092 FILLER_0_21_15
*1093 FILLER_0_21_161
*1094 FILLER_0_21_167
*1095 FILLER_0_21_169
*1096 FILLER_0_21_181
*1097 FILLER_0_21_193
*1098 FILLER_0_21_205
*1099 FILLER_0_21_217
*1100 FILLER_0_21_223
*1101 FILLER_0_21_225
*1102 FILLER_0_21_237
*1103 FILLER_0_21_249
*1104 FILLER_0_21_261
*1105 FILLER_0_21_27
*1106 FILLER_0_21_273
*1107 FILLER_0_21_279
*1108 FILLER_0_21_281
*1109 FILLER_0_21_293
*1110 FILLER_0_21_3
*1111 FILLER_0_21_305
*1112 FILLER_0_21_317
*1113 FILLER_0_21_329
*1114 FILLER_0_21_335
*1115 FILLER_0_21_337
*1116 FILLER_0_21_349
*1117 FILLER_0_21_361
*1118 FILLER_0_21_39
*1119 FILLER_0_21_51
*1120 FILLER_0_21_55
*1121 FILLER_0_21_57
*1122 FILLER_0_21_69
*1123 FILLER_0_21_81
*1124 FILLER_0_21_93
*1125 FILLER_0_22_109
*1126 FILLER_0_22_121
*1127 FILLER_0_22_133
*1128 FILLER_0_22_139
*1129 FILLER_0_22_141
*1130 FILLER_0_22_15
*1131 FILLER_0_22_153
*1132 FILLER_0_22_165
*1133 FILLER_0_22_177
*1134 FILLER_0_22_189
*1135 FILLER_0_22_195
*1136 FILLER_0_22_197
*1137 FILLER_0_22_209
*1138 FILLER_0_22_221
*1139 FILLER_0_22_229
*1140 FILLER_0_22_237
*1141 FILLER_0_22_243
*1142 FILLER_0_22_251
*1143 FILLER_0_22_256
*1144 FILLER_0_22_27
*1145 FILLER_0_22_273
*1146 FILLER_0_22_285
*1147 FILLER_0_22_29
*1148 FILLER_0_22_296
*1149 FILLER_0_22_3
*1150 FILLER_0_22_309
*1151 FILLER_0_22_321
*1152 FILLER_0_22_333
*1153 FILLER_0_22_345
*1154 FILLER_0_22_357
*1155 FILLER_0_22_363
*1156 FILLER_0_22_41
*1157 FILLER_0_22_53
*1158 FILLER_0_22_65
*1159 FILLER_0_22_77
*1160 FILLER_0_22_83
*1161 FILLER_0_22_85
*1162 FILLER_0_22_97
*1163 FILLER_0_23_105
*1164 FILLER_0_23_111
*1165 FILLER_0_23_113
*1166 FILLER_0_23_125
*1167 FILLER_0_23_137
*1168 FILLER_0_23_149
*1169 FILLER_0_23_15
*1170 FILLER_0_23_161
*1171 FILLER_0_23_167
*1172 FILLER_0_23_169
*1173 FILLER_0_23_181
*1174 FILLER_0_23_193
*1175 FILLER_0_23_201
*1176 FILLER_0_23_219
*1177 FILLER_0_23_223
*1178 FILLER_0_23_225
*1179 FILLER_0_23_237
*1180 FILLER_0_23_27
*1181 FILLER_0_23_279
*1182 FILLER_0_23_281
*1183 FILLER_0_23_287
*1184 FILLER_0_23_3
*1185 FILLER_0_23_304
*1186 FILLER_0_23_315
*1187 FILLER_0_23_327
*1188 FILLER_0_23_333
*1189 FILLER_0_23_337
*1190 FILLER_0_23_349
*1191 FILLER_0_23_361
*1192 FILLER_0_23_39
*1193 FILLER_0_23_51
*1194 FILLER_0_23_55
*1195 FILLER_0_23_57
*1196 FILLER_0_23_69
*1197 FILLER_0_23_81
*1198 FILLER_0_23_93
*1199 FILLER_0_24_109
*1200 FILLER_0_24_121
*1201 FILLER_0_24_133
*1202 FILLER_0_24_139
*1203 FILLER_0_24_141
*1204 FILLER_0_24_15
*1205 FILLER_0_24_153
*1206 FILLER_0_24_165
*1207 FILLER_0_24_177
*1208 FILLER_0_24_189
*1209 FILLER_0_24_195
*1210 FILLER_0_24_197
*1211 FILLER_0_24_209
*1212 FILLER_0_24_221
*1213 FILLER_0_24_233
*1214 FILLER_0_24_245
*1215 FILLER_0_24_27
*1216 FILLER_0_24_285
*1217 FILLER_0_24_29
*1218 FILLER_0_24_291
*1219 FILLER_0_24_295
*1220 FILLER_0_24_3
*1221 FILLER_0_24_306
*1222 FILLER_0_24_312
*1223 FILLER_0_24_333
*1224 FILLER_0_24_345
*1225 FILLER_0_24_357
*1226 FILLER_0_24_363
*1227 FILLER_0_24_41
*1228 FILLER_0_24_53
*1229 FILLER_0_24_65
*1230 FILLER_0_24_77
*1231 FILLER_0_24_83
*1232 FILLER_0_24_85
*1233 FILLER_0_24_97
*1234 FILLER_0_25_105
*1235 FILLER_0_25_111
*1236 FILLER_0_25_113
*1237 FILLER_0_25_125
*1238 FILLER_0_25_137
*1239 FILLER_0_25_149
*1240 FILLER_0_25_15
*1241 FILLER_0_25_161
*1242 FILLER_0_25_167
*1243 FILLER_0_25_169
*1244 FILLER_0_25_181
*1245 FILLER_0_25_188
*1246 FILLER_0_25_211
*1247 FILLER_0_25_223
*1248 FILLER_0_25_225
*1249 FILLER_0_25_237
*1250 FILLER_0_25_249
*1251 FILLER_0_25_253
*1252 FILLER_0_25_264
*1253 FILLER_0_25_27
*1254 FILLER_0_25_273
*1255 FILLER_0_25_3
*1256 FILLER_0_25_334
*1257 FILLER_0_25_337
*1258 FILLER_0_25_349
*1259 FILLER_0_25_361
*1260 FILLER_0_25_39
*1261 FILLER_0_25_51
*1262 FILLER_0_25_55
*1263 FILLER_0_25_57
*1264 FILLER_0_25_69
*1265 FILLER_0_25_81
*1266 FILLER_0_25_93
*1267 FILLER_0_26_109
*1268 FILLER_0_26_121
*1269 FILLER_0_26_133
*1270 FILLER_0_26_139
*1271 FILLER_0_26_141
*1272 FILLER_0_26_15
*1273 FILLER_0_26_153
*1274 FILLER_0_26_165
*1275 FILLER_0_26_177
*1276 FILLER_0_26_194
*1277 FILLER_0_26_206
*1278 FILLER_0_26_247
*1279 FILLER_0_26_251
*1280 FILLER_0_26_253
*1281 FILLER_0_26_265
*1282 FILLER_0_26_27
*1283 FILLER_0_26_280
*1284 FILLER_0_26_29
*1285 FILLER_0_26_292
*1286 FILLER_0_26_298
*1287 FILLER_0_26_3
*1288 FILLER_0_26_321
*1289 FILLER_0_26_338
*1290 FILLER_0_26_350
*1291 FILLER_0_26_362
*1292 FILLER_0_26_41
*1293 FILLER_0_26_53
*1294 FILLER_0_26_65
*1295 FILLER_0_26_77
*1296 FILLER_0_26_83
*1297 FILLER_0_26_85
*1298 FILLER_0_26_97
*1299 FILLER_0_27_105
*1300 FILLER_0_27_111
*1301 FILLER_0_27_113
*1302 FILLER_0_27_125
*1303 FILLER_0_27_137
*1304 FILLER_0_27_149
*1305 FILLER_0_27_15
*1306 FILLER_0_27_160
*1307 FILLER_0_27_166
*1308 FILLER_0_27_189
*1309 FILLER_0_27_199
*1310 FILLER_0_27_225
*1311 FILLER_0_27_234
*1312 FILLER_0_27_265
*1313 FILLER_0_27_27
*1314 FILLER_0_27_278
*1315 FILLER_0_27_286
*1316 FILLER_0_27_298
*1317 FILLER_0_27_3
*1318 FILLER_0_27_314
*1319 FILLER_0_27_320
*1320 FILLER_0_27_324
*1321 FILLER_0_27_337
*1322 FILLER_0_27_349
*1323 FILLER_0_27_361
*1324 FILLER_0_27_39
*1325 FILLER_0_27_51
*1326 FILLER_0_27_55
*1327 FILLER_0_27_57
*1328 FILLER_0_27_69
*1329 FILLER_0_27_81
*1330 FILLER_0_27_93
*1331 FILLER_0_28_109
*1332 FILLER_0_28_121
*1333 FILLER_0_28_133
*1334 FILLER_0_28_139
*1335 FILLER_0_28_141
*1336 FILLER_0_28_15
*1337 FILLER_0_28_189
*1338 FILLER_0_28_195
*1339 FILLER_0_28_200
*1340 FILLER_0_28_204
*1341 FILLER_0_28_226
*1342 FILLER_0_28_250
*1343 FILLER_0_28_27
*1344 FILLER_0_28_29
*1345 FILLER_0_28_3
*1346 FILLER_0_28_301
*1347 FILLER_0_28_307
*1348 FILLER_0_28_309
*1349 FILLER_0_28_313
*1350 FILLER_0_28_331
*1351 FILLER_0_28_343
*1352 FILLER_0_28_355
*1353 FILLER_0_28_363
*1354 FILLER_0_28_41
*1355 FILLER_0_28_53
*1356 FILLER_0_28_65
*1357 FILLER_0_28_77
*1358 FILLER_0_28_83
*1359 FILLER_0_28_85
*1360 FILLER_0_28_97
*1361 FILLER_0_29_105
*1362 FILLER_0_29_111
*1363 FILLER_0_29_113
*1364 FILLER_0_29_125
*1365 FILLER_0_29_137
*1366 FILLER_0_29_149
*1367 FILLER_0_29_15
*1368 FILLER_0_29_161
*1369 FILLER_0_29_167
*1370 FILLER_0_29_169
*1371 FILLER_0_29_186
*1372 FILLER_0_29_197
*1373 FILLER_0_29_209
*1374 FILLER_0_29_219
*1375 FILLER_0_29_223
*1376 FILLER_0_29_225
*1377 FILLER_0_29_236
*1378 FILLER_0_29_248
*1379 FILLER_0_29_256
*1380 FILLER_0_29_260
*1381 FILLER_0_29_264
*1382 FILLER_0_29_27
*1383 FILLER_0_29_278
*1384 FILLER_0_29_284
*1385 FILLER_0_29_3
*1386 FILLER_0_29_327
*1387 FILLER_0_29_335
*1388 FILLER_0_29_337
*1389 FILLER_0_29_349
*1390 FILLER_0_29_361
*1391 FILLER_0_29_39
*1392 FILLER_0_29_51
*1393 FILLER_0_29_55
*1394 FILLER_0_29_57
*1395 FILLER_0_29_69
*1396 FILLER_0_29_81
*1397 FILLER_0_29_93
*1398 FILLER_0_2_109
*1399 FILLER_0_2_121
*1400 FILLER_0_2_133
*1401 FILLER_0_2_139
*1402 FILLER_0_2_141
*1403 FILLER_0_2_15
*1404 FILLER_0_2_153
*1405 FILLER_0_2_165
*1406 FILLER_0_2_177
*1407 FILLER_0_2_189
*1408 FILLER_0_2_195
*1409 FILLER_0_2_197
*1410 FILLER_0_2_209
*1411 FILLER_0_2_221
*1412 FILLER_0_2_233
*1413 FILLER_0_2_245
*1414 FILLER_0_2_251
*1415 FILLER_0_2_253
*1416 FILLER_0_2_265
*1417 FILLER_0_2_27
*1418 FILLER_0_2_277
*1419 FILLER_0_2_289
*1420 FILLER_0_2_29
*1421 FILLER_0_2_3
*1422 FILLER_0_2_301
*1423 FILLER_0_2_307
*1424 FILLER_0_2_309
*1425 FILLER_0_2_321
*1426 FILLER_0_2_333
*1427 FILLER_0_2_345
*1428 FILLER_0_2_357
*1429 FILLER_0_2_363
*1430 FILLER_0_2_41
*1431 FILLER_0_2_53
*1432 FILLER_0_2_65
*1433 FILLER_0_2_77
*1434 FILLER_0_2_83
*1435 FILLER_0_2_85
*1436 FILLER_0_2_97
*1437 FILLER_0_30_109
*1438 FILLER_0_30_121
*1439 FILLER_0_30_133
*1440 FILLER_0_30_139
*1441 FILLER_0_30_141
*1442 FILLER_0_30_15
*1443 FILLER_0_30_153
*1444 FILLER_0_30_161
*1445 FILLER_0_30_185
*1446 FILLER_0_30_206
*1447 FILLER_0_30_215
*1448 FILLER_0_30_226
*1449 FILLER_0_30_234
*1450 FILLER_0_30_239
*1451 FILLER_0_30_248
*1452 FILLER_0_30_253
*1453 FILLER_0_30_265
*1454 FILLER_0_30_27
*1455 FILLER_0_30_277
*1456 FILLER_0_30_29
*1457 FILLER_0_30_3
*1458 FILLER_0_30_306
*1459 FILLER_0_30_323
*1460 FILLER_0_30_332
*1461 FILLER_0_30_343
*1462 FILLER_0_30_355
*1463 FILLER_0_30_363
*1464 FILLER_0_30_41
*1465 FILLER_0_30_53
*1466 FILLER_0_30_65
*1467 FILLER_0_30_77
*1468 FILLER_0_30_83
*1469 FILLER_0_30_85
*1470 FILLER_0_30_97
*1471 FILLER_0_31_105
*1472 FILLER_0_31_111
*1473 FILLER_0_31_113
*1474 FILLER_0_31_125
*1475 FILLER_0_31_137
*1476 FILLER_0_31_149
*1477 FILLER_0_31_15
*1478 FILLER_0_31_161
*1479 FILLER_0_31_167
*1480 FILLER_0_31_169
*1481 FILLER_0_31_178
*1482 FILLER_0_31_190
*1483 FILLER_0_31_198
*1484 FILLER_0_31_238
*1485 FILLER_0_31_27
*1486 FILLER_0_31_275
*1487 FILLER_0_31_279
*1488 FILLER_0_31_286
*1489 FILLER_0_31_294
*1490 FILLER_0_31_298
*1491 FILLER_0_31_3
*1492 FILLER_0_31_308
*1493 FILLER_0_31_316
*1494 FILLER_0_31_337
*1495 FILLER_0_31_355
*1496 FILLER_0_31_363
*1497 FILLER_0_31_39
*1498 FILLER_0_31_51
*1499 FILLER_0_31_55
*1500 FILLER_0_31_57
*1501 FILLER_0_31_69
*1502 FILLER_0_31_81
*1503 FILLER_0_31_93
*1504 FILLER_0_32_109
*1505 FILLER_0_32_121
*1506 FILLER_0_32_133
*1507 FILLER_0_32_139
*1508 FILLER_0_32_141
*1509 FILLER_0_32_153
*1510 FILLER_0_32_18
*1511 FILLER_0_32_192
*1512 FILLER_0_32_202
*1513 FILLER_0_32_207
*1514 FILLER_0_32_215
*1515 FILLER_0_32_253
*1516 FILLER_0_32_26
*1517 FILLER_0_32_261
*1518 FILLER_0_32_29
*1519 FILLER_0_32_296
*1520 FILLER_0_32_353
*1521 FILLER_0_32_361
*1522 FILLER_0_32_41
*1523 FILLER_0_32_53
*1524 FILLER_0_32_6
*1525 FILLER_0_32_65
*1526 FILLER_0_32_77
*1527 FILLER_0_32_83
*1528 FILLER_0_32_85
*1529 FILLER_0_32_97
*1530 FILLER_0_33_105
*1531 FILLER_0_33_111
*1532 FILLER_0_33_113
*1533 FILLER_0_33_125
*1534 FILLER_0_33_137
*1535 FILLER_0_33_149
*1536 FILLER_0_33_15
*1537 FILLER_0_33_161
*1538 FILLER_0_33_167
*1539 FILLER_0_33_169
*1540 FILLER_0_33_210
*1541 FILLER_0_33_222
*1542 FILLER_0_33_225
*1543 FILLER_0_33_236
*1544 FILLER_0_33_250
*1545 FILLER_0_33_262
*1546 FILLER_0_33_27
*1547 FILLER_0_33_278
*1548 FILLER_0_33_297
*1549 FILLER_0_33_3
*1550 FILLER_0_33_301
*1551 FILLER_0_33_313
*1552 FILLER_0_33_321
*1553 FILLER_0_33_332
*1554 FILLER_0_33_353
*1555 FILLER_0_33_361
*1556 FILLER_0_33_39
*1557 FILLER_0_33_51
*1558 FILLER_0_33_55
*1559 FILLER_0_33_57
*1560 FILLER_0_33_69
*1561 FILLER_0_33_81
*1562 FILLER_0_33_93
*1563 FILLER_0_34_109
*1564 FILLER_0_34_121
*1565 FILLER_0_34_133
*1566 FILLER_0_34_139
*1567 FILLER_0_34_141
*1568 FILLER_0_34_15
*1569 FILLER_0_34_153
*1570 FILLER_0_34_165
*1571 FILLER_0_34_177
*1572 FILLER_0_34_181
*1573 FILLER_0_34_186
*1574 FILLER_0_34_194
*1575 FILLER_0_34_197
*1576 FILLER_0_34_205
*1577 FILLER_0_34_212
*1578 FILLER_0_34_224
*1579 FILLER_0_34_228
*1580 FILLER_0_34_240
*1581 FILLER_0_34_244
*1582 FILLER_0_34_266
*1583 FILLER_0_34_27
*1584 FILLER_0_34_274
*1585 FILLER_0_34_29
*1586 FILLER_0_34_3
*1587 FILLER_0_34_309
*1588 FILLER_0_34_313
*1589 FILLER_0_34_319
*1590 FILLER_0_34_336
*1591 FILLER_0_34_340
*1592 FILLER_0_34_357
*1593 FILLER_0_34_363
*1594 FILLER_0_34_41
*1595 FILLER_0_34_53