*SPEF "ieee 1481-1999"
*DESIGN "rgb_mixer"
*DATE "11:11:11 Fri 11 11, 1111"
*VENDOR "OpenRCX"
*PROGRAM "Parallel Extraction"
*VERSION "1.0"
*DESIGN_FLOW "NAME_SCOPE LOCAL" "PIN_CAP NONE"
*DIVIDER /
*DELIMITER :
*BUS_DELIMITER []
*T_UNIT 1 NS
*C_UNIT 1 PF
*R_UNIT 1 OHM
*L_UNIT 1 HENRY

*NAME_MAP
*1 clk
*2 enc0_a
*3 enc0_b
*4 enc1_a
*5 enc1_b
*6 enc2_a
*7 enc2_b
*8 net17
*9 net18
*10 net19
*11 net20
*12 net21
*13 net22
*14 net13
*15 net14
*16 net15
*17 net16
*18 pwm0_out
*19 pwm1_out
*20 pwm2_out
*21 reset
*22 sync
*25 _000_
*26 _001_
*27 _002_
*28 _003_
*29 _004_
*30 _005_
*31 _006_
*32 _007_
*33 _008_
*34 _009_
*35 _010_
*36 _011_
*37 _012_
*38 _013_
*39 _014_
*40 _015_
*41 _016_
*42 _017_
*43 _018_
*44 _019_
*45 _020_
*46 _021_
*47 _022_
*48 _023_
*49 _024_
*50 _025_
*51 _026_
*52 _027_
*53 _028_
*54 _029_
*55 _030_
*56 _031_
*57 _032_
*58 _033_
*59 _034_
*60 _035_
*61 _036_
*62 _037_
*63 _038_
*64 _039_
*65 _040_
*66 _041_
*67 _042_
*68 _043_
*69 _044_
*70 _045_
*71 _046_
*72 _047_
*73 _048_
*74 _049_
*75 _050_
*76 _051_
*77 _052_
*78 _053_
*79 _054_
*80 _055_
*81 _056_
*82 _057_
*83 _058_
*84 _059_
*85 _060_
*86 _061_
*87 _062_
*88 _063_
*89 _064_
*90 _065_
*91 _066_
*92 _067_
*93 _068_
*94 _069_
*95 _070_
*96 _071_
*97 _072_
*98 _073_
*99 _074_
*100 _075_
*101 _076_
*102 _077_
*103 _078_
*104 _079_
*105 _080_
*106 _081_
*107 _082_
*108 _083_
*109 _084_
*110 _085_
*111 _086_
*112 _087_
*113 _088_
*114 _089_
*115 _090_
*116 _091_
*117 _092_
*118 _093_
*119 _094_
*120 _095_
*121 _096_
*122 _097_
*123 _098_
*124 _099_
*125 _100_
*126 _101_
*127 _102_
*128 _103_
*129 _104_
*130 _105_
*131 _106_
*132 _107_
*133 _108_
*134 _109_
*135 _110_
*136 _111_
*137 _112_
*138 _113_
*139 _114_
*140 _115_
*141 _116_
*142 _117_
*143 _118_
*144 _119_
*145 _120_
*146 _121_
*147 _122_
*148 _123_
*149 _124_
*150 _125_
*151 _126_
*152 _127_
*153 _128_
*154 _129_
*155 _130_
*156 _131_
*157 _132_
*158 _133_
*159 _134_
*160 _135_
*161 _136_
*162 _137_
*163 _138_
*164 _139_
*165 _140_
*166 _141_
*167 _142_
*168 _143_
*169 _144_
*170 _145_
*171 _146_
*172 _147_
*173 _148_
*174 _149_
*175 _150_
*176 _151_
*177 _152_
*178 _153_
*179 _154_
*180 _155_
*181 _156_
*182 _157_
*183 _158_
*184 _159_
*185 _160_
*186 _161_
*187 _162_
*188 _163_
*189 _164_
*190 _165_
*191 _166_
*192 _167_
*193 _168_
*194 _169_
*195 _170_
*196 _171_
*197 _172_
*198 _173_
*199 _174_
*200 _175_
*201 _176_
*202 _177_
*203 _178_
*204 _179_
*205 _180_
*206 _181_
*207 _182_
*208 _183_
*209 _184_
*210 _185_
*211 _186_
*212 _187_
*213 _188_
*214 _189_
*215 _190_
*216 _191_
*217 _192_
*218 _193_
*219 _194_
*220 _195_
*221 _196_
*222 _197_
*223 _198_
*224 _199_
*225 _200_
*226 _201_
*227 _202_
*228 _203_
*229 _204_
*230 _205_
*231 _206_
*232 _207_
*233 _208_
*234 _209_
*235 _210_
*236 _211_
*237 _212_
*238 _213_
*239 _214_
*240 _215_
*241 _216_
*242 _217_
*243 _218_
*244 _219_
*245 _220_
*246 _221_
*247 _222_
*248 _223_
*249 _224_
*250 _225_
*251 _226_
*252 _227_
*253 _228_
*254 _229_
*255 _230_
*256 _231_
*257 _232_
*258 _233_
*259 _234_
*260 _235_
*261 _236_
*262 _237_
*263 _238_
*264 _239_
*265 _240_
*266 _241_
*267 _242_
*268 _243_
*269 _244_
*270 _245_
*271 _246_
*272 _247_
*273 _248_
*274 _249_
*275 _250_
*276 _251_
*277 _252_
*278 _253_
*279 _254_
*280 _255_
*281 _256_
*282 _257_
*283 _258_
*284 _259_
*285 _260_
*286 _261_
*287 _262_
*288 _263_
*289 _264_
*290 _265_
*291 _266_
*292 _267_
*293 _268_
*294 _269_
*295 _270_
*296 _271_
*297 _272_
*298 _273_
*299 _274_
*300 _275_
*301 _276_
*302 _277_
*303 _278_
*304 _279_
*305 _280_
*306 _281_
*307 _282_
*308 _283_
*309 _284_
*310 _285_
*311 _286_
*312 _287_
*313 _288_
*314 _289_
*315 _290_
*316 _291_
*317 _292_
*318 _293_
*319 _294_
*320 _295_
*321 _296_
*322 _297_
*323 _298_
*324 _299_
*325 _300_
*326 _301_
*327 _302_
*328 _303_
*329 _304_
*330 _305_
*331 _306_
*332 _307_
*333 _308_
*334 _309_
*335 _310_
*336 _311_
*337 _312_
*338 _313_
*339 _314_
*340 _315_
*341 _316_
*342 _317_
*343 _318_
*344 _319_
*345 _320_
*346 _321_
*347 _322_
*348 _323_
*349 _324_
*350 _325_
*351 _326_
*352 _327_
*353 _328_
*354 _329_
*355 _330_
*356 _331_
*357 _332_
*358 _333_
*359 _334_
*360 _335_
*361 _336_
*362 _337_
*363 _338_
*364 _339_
*365 _340_
*366 _341_
*367 _342_
*368 _343_
*369 _344_
*370 _345_
*371 _346_
*372 _347_
*373 _348_
*374 _349_
*375 _350_
*376 _351_
*377 _352_
*378 _353_
*379 _354_
*380 _355_
*381 _356_
*382 _357_
*383 _358_
*384 _359_
*385 _360_
*386 _361_
*387 _362_
*388 _363_
*389 _364_
*390 _365_
*391 _366_
*392 _367_
*393 _368_
*394 _369_
*395 _370_
*396 _371_
*397 _372_
*398 _373_
*399 _374_
*400 _375_
*401 _376_
*402 _377_
*403 _378_
*404 _379_
*405 _380_
*406 _381_
*407 _382_
*408 _383_
*409 _384_
*410 _385_
*411 _386_
*412 _387_
*413 _388_
*414 _389_
*415 _390_
*416 _391_
*417 _392_
*418 _393_
*419 _394_
*420 _395_
*421 _396_
*422 _397_
*423 _398_
*424 _399_
*425 _400_
*426 _401_
*427 _402_
*428 _403_
*429 _404_
*430 _405_
*431 _406_
*432 _407_
*433 _408_
*434 _409_
*435 _410_
*436 _411_
*437 _412_
*438 _413_
*439 _414_
*440 _415_
*441 _416_
*442 _417_
*443 _418_
*444 _419_
*445 _420_
*446 _421_
*447 _422_
*448 _423_
*449 _424_
*450 _425_
*451 clknet_0_clk
*452 clknet_3_0__leaf_clk
*453 clknet_3_1__leaf_clk
*454 clknet_3_2__leaf_clk
*455 clknet_3_3__leaf_clk
*456 clknet_3_4__leaf_clk
*457 clknet_3_5__leaf_clk
*458 clknet_3_6__leaf_clk
*459 clknet_3_7__leaf_clk
*460 debounce0_a\.button_hist\[0\]
*461 debounce0_a\.button_hist\[1\]
*462 debounce0_a\.button_hist\[2\]
*463 debounce0_a\.button_hist\[3\]
*464 debounce0_a\.button_hist\[4\]
*465 debounce0_a\.button_hist\[5\]
*466 debounce0_a\.button_hist\[6\]
*467 debounce0_a\.button_hist\[7\]
*468 debounce0_a\.debounced
*469 debounce0_a\.reset
*470 debounce0_b\.button_hist\[0\]
*471 debounce0_b\.button_hist\[1\]
*472 debounce0_b\.button_hist\[2\]
*473 debounce0_b\.button_hist\[3\]
*474 debounce0_b\.button_hist\[4\]
*475 debounce0_b\.button_hist\[5\]
*476 debounce0_b\.button_hist\[6\]
*477 debounce0_b\.button_hist\[7\]
*478 debounce0_b\.debounced
*479 debounce1_a\.button_hist\[0\]
*480 debounce1_a\.button_hist\[1\]
*481 debounce1_a\.button_hist\[2\]
*482 debounce1_a\.button_hist\[3\]
*483 debounce1_a\.button_hist\[4\]
*484 debounce1_a\.button_hist\[5\]
*485 debounce1_a\.button_hist\[6\]
*486 debounce1_a\.button_hist\[7\]
*487 debounce1_a\.debounced
*488 debounce1_b\.button_hist\[0\]
*489 debounce1_b\.button_hist\[1\]
*490 debounce1_b\.button_hist\[2\]
*491 debounce1_b\.button_hist\[3\]
*492 debounce1_b\.button_hist\[4\]
*493 debounce1_b\.button_hist\[5\]
*494 debounce1_b\.button_hist\[6\]
*495 debounce1_b\.button_hist\[7\]
*496 debounce1_b\.debounced
*497 debounce2_a\.button_hist\[0\]
*498 debounce2_a\.button_hist\[1\]
*499 debounce2_a\.button_hist\[2\]
*500 debounce2_a\.button_hist\[3\]
*501 debounce2_a\.button_hist\[4\]
*502 debounce2_a\.button_hist\[5\]
*503 debounce2_a\.button_hist\[6\]
*504 debounce2_a\.button_hist\[7\]
*505 debounce2_a\.debounced
*506 debounce2_b\.button_hist\[0\]
*507 debounce2_b\.button_hist\[1\]
*508 debounce2_b\.button_hist\[2\]
*509 debounce2_b\.button_hist\[3\]
*510 debounce2_b\.button_hist\[4\]
*511 debounce2_b\.button_hist\[5\]
*512 debounce2_b\.button_hist\[6\]
*513 debounce2_b\.button_hist\[7\]
*514 debounce2_b\.debounced
*515 encoder0\.old_a
*516 encoder0\.old_b
*517 encoder0\.value\[0\]
*518 encoder0\.value\[1\]
*519 encoder0\.value\[2\]
*520 encoder0\.value\[3\]
*521 encoder0\.value\[4\]
*522 encoder0\.value\[5\]
*523 encoder0\.value\[6\]
*524 encoder0\.value\[7\]
*525 encoder1\.old_a
*526 encoder1\.old_b
*527 encoder1\.value\[0\]
*528 encoder1\.value\[1\]
*529 encoder1\.value\[2\]
*530 encoder1\.value\[3\]
*531 encoder1\.value\[4\]
*532 encoder1\.value\[5\]
*533 encoder1\.value\[6\]
*534 encoder1\.value\[7\]
*535 encoder2\.old_a
*536 encoder2\.old_b
*537 encoder2\.value\[0\]
*538 encoder2\.value\[1\]
*539 encoder2\.value\[2\]
*540 encoder2\.value\[3\]
*541 encoder2\.value\[4\]
*542 encoder2\.value\[5\]
*543 encoder2\.value\[6\]
*544 encoder2\.value\[7\]
*545 net1
*546 net10
*547 net100
*548 net101
*549 net102
*550 net103
*551 net104
*552 net105
*553 net106
*554 net107
*555 net108
*556 net109
*557 net11
*558 net110
*559 net111
*560 net112
*561 net113
*562 net114
*563 net115
*564 net116
*565 net117
*566 net118
*567 net119
*568 net12
*569 net120
*570 net121
*571 net122
*572 net123
*573 net124
*574 net125
*575 net126
*576 net127
*577 net128
*578 net129
*579 net130
*580 net131
*581 net132
*582 net133
*583 net134
*584 net135
*585 net136
*586 net137
*587 net138
*588 net139
*589 net140
*590 net141
*591 net142
*592 net143
*593 net144
*594 net145
*595 net146
*596 net147
*597 net148
*598 net149
*599 net150
*600 net151
*601 net152
*602 net153
*603 net154
*604 net155
*605 net156
*606 net157
*607 net158
*608 net159
*609 net160
*610 net161
*611 net162
*612 net163
*613 net164
*614 net165
*615 net166
*616 net167
*617 net168
*618 net169
*619 net170
*620 net171
*621 net172
*622 net173
*623 net174
*624 net175
*625 net176
*626 net2
*627 net23
*628 net24
*629 net25
*630 net26
*631 net27
*632 net28
*633 net29
*634 net3
*635 net30
*636 net31
*637 net32
*638 net33
*639 net34
*640 net35
*641 net36
*642 net37
*643 net38
*644 net39
*645 net4
*646 net40
*647 net41
*648 net42
*649 net43
*650 net44
*651 net45
*652 net46
*653 net47
*654 net48
*655 net49
*656 net5
*657 net50
*658 net51
*659 net52
*660 net53
*661 net54
*662 net55
*663 net56
*664 net57
*665 net58
*666 net59
*667 net6
*668 net60
*669 net61
*670 net62
*671 net63
*672 net64
*673 net65
*674 net66
*675 net67
*676 net68
*677 net69
*678 net7
*679 net70
*680 net71
*681 net72
*682 net73
*683 net74
*684 net75
*685 net76
*686 net77
*687 net78
*688 net79
*689 net8
*690 net80
*691 net81
*692 net82
*693 net83
*694 net84
*695 net85
*696 net86
*697 net87
*698 net88
*699 net89
*700 net9
*701 net90
*702 net91
*703 net92
*704 net93
*705 net94
*706 net95
*707 net96
*708 net97
*709 net98
*710 net99
*711 pwm0\.count\[0\]
*712 pwm0\.count\[1\]
*713 pwm0\.count\[2\]
*714 pwm0\.count\[3\]
*715 pwm0\.count\[4\]
*716 pwm0\.count\[5\]
*717 pwm0\.count\[6\]
*718 pwm0\.count\[7\]
*719 pwm1\.count\[0\]
*720 pwm1\.count\[1\]
*721 pwm1\.count\[2\]
*722 pwm1\.count\[3\]
*723 pwm1\.count\[4\]
*724 pwm1\.count\[5\]
*725 pwm1\.count\[6\]
*726 pwm1\.count\[7\]
*727 pwm2\.count\[0\]
*728 pwm2\.count\[1\]
*729 pwm2\.count\[2\]
*730 pwm2\.count\[3\]
*731 pwm2\.count\[4\]
*732 pwm2\.count\[5\]
*733 pwm2\.count\[6\]
*734 pwm2\.count\[7\]
*735 FILLER_0_0_109
*736 FILLER_0_0_113
*737 FILLER_0_0_125
*738 FILLER_0_0_133
*739 FILLER_0_0_139
*740 FILLER_0_0_141
*741 FILLER_0_0_153
*742 FILLER_0_0_165
*743 FILLER_0_0_169
*744 FILLER_0_0_18
*745 FILLER_0_0_181
*746 FILLER_0_0_193
*747 FILLER_0_0_197
*748 FILLER_0_0_205
*749 FILLER_0_0_225
*750 FILLER_0_0_237
*751 FILLER_0_0_249
*752 FILLER_0_0_253
*753 FILLER_0_0_26
*754 FILLER_0_0_265
*755 FILLER_0_0_277
*756 FILLER_0_0_281
*757 FILLER_0_0_286
*758 FILLER_0_0_29
*759 FILLER_0_0_298
*760 FILLER_0_0_306
*761 FILLER_0_0_309
*762 FILLER_0_0_321
*763 FILLER_0_0_333
*764 FILLER_0_0_337
*765 FILLER_0_0_349
*766 FILLER_0_0_357
*767 FILLER_0_0_363
*768 FILLER_0_0_41
*769 FILLER_0_0_53
*770 FILLER_0_0_57
*771 FILLER_0_0_6
*772 FILLER_0_0_62
*773 FILLER_0_0_74
*774 FILLER_0_0_82
*775 FILLER_0_0_85
*776 FILLER_0_0_97
*777 FILLER_0_10_109
*778 FILLER_0_10_121
*779 FILLER_0_10_133
*780 FILLER_0_10_139
*781 FILLER_0_10_141
*782 FILLER_0_10_15
*783 FILLER_0_10_153
*784 FILLER_0_10_165
*785 FILLER_0_10_177
*786 FILLER_0_10_189
*787 FILLER_0_10_195
*788 FILLER_0_10_197
*789 FILLER_0_10_209
*790 FILLER_0_10_221
*791 FILLER_0_10_233
*792 FILLER_0_10_245
*793 FILLER_0_10_251
*794 FILLER_0_10_253
*795 FILLER_0_10_265
*796 FILLER_0_10_27
*797 FILLER_0_10_277
*798 FILLER_0_10_289
*799 FILLER_0_10_29
*800 FILLER_0_10_3
*801 FILLER_0_10_301
*802 FILLER_0_10_307
*803 FILLER_0_10_309
*804 FILLER_0_10_321
*805 FILLER_0_10_333
*806 FILLER_0_10_345
*807 FILLER_0_10_357
*808 FILLER_0_10_363
*809 FILLER_0_10_41
*810 FILLER_0_10_53
*811 FILLER_0_10_65
*812 FILLER_0_10_77
*813 FILLER_0_10_83
*814 FILLER_0_10_85
*815 FILLER_0_10_97
*816 FILLER_0_11_105
*817 FILLER_0_11_111
*818 FILLER_0_11_113
*819 FILLER_0_11_125
*820 FILLER_0_11_137
*821 FILLER_0_11_149
*822 FILLER_0_11_15
*823 FILLER_0_11_161
*824 FILLER_0_11_167
*825 FILLER_0_11_169
*826 FILLER_0_11_181
*827 FILLER_0_11_193
*828 FILLER_0_11_205
*829 FILLER_0_11_217
*830 FILLER_0_11_223
*831 FILLER_0_11_225
*832 FILLER_0_11_237
*833 FILLER_0_11_249
*834 FILLER_0_11_261
*835 FILLER_0_11_27
*836 FILLER_0_11_273
*837 FILLER_0_11_279
*838 FILLER_0_11_281
*839 FILLER_0_11_293
*840 FILLER_0_11_3
*841 FILLER_0_11_305
*842 FILLER_0_11_317
*843 FILLER_0_11_329
*844 FILLER_0_11_335
*845 FILLER_0_11_337
*846 FILLER_0_11_349
*847 FILLER_0_11_361
*848 FILLER_0_11_39
*849 FILLER_0_11_51
*850 FILLER_0_11_55
*851 FILLER_0_11_57
*852 FILLER_0_11_69
*853 FILLER_0_11_81
*854 FILLER_0_11_93
*855 FILLER_0_12_109
*856 FILLER_0_12_121
*857 FILLER_0_12_133
*858 FILLER_0_12_139
*859 FILLER_0_12_141
*860 FILLER_0_12_15
*861 FILLER_0_12_153
*862 FILLER_0_12_165
*863 FILLER_0_12_177
*864 FILLER_0_12_189
*865 FILLER_0_12_195
*866 FILLER_0_12_197
*867 FILLER_0_12_209
*868 FILLER_0_12_221
*869 FILLER_0_12_233
*870 FILLER_0_12_245
*871 FILLER_0_12_251
*872 FILLER_0_12_253
*873 FILLER_0_12_265
*874 FILLER_0_12_27
*875 FILLER_0_12_277
*876 FILLER_0_12_289
*877 FILLER_0_12_29
*878 FILLER_0_12_3
*879 FILLER_0_12_301
*880 FILLER_0_12_307
*881 FILLER_0_12_309
*882 FILLER_0_12_321
*883 FILLER_0_12_333
*884 FILLER_0_12_345
*885 FILLER_0_12_357
*886 FILLER_0_12_363
*887 FILLER_0_12_41
*888 FILLER_0_12_53
*889 FILLER_0_12_65
*890 FILLER_0_12_77
*891 FILLER_0_12_83
*892 FILLER_0_12_85
*893 FILLER_0_12_97
*894 FILLER_0_13_105
*895 FILLER_0_13_111
*896 FILLER_0_13_113
*897 FILLER_0_13_125
*898 FILLER_0_13_137
*899 FILLER_0_13_149
*900 FILLER_0_13_15
*901 FILLER_0_13_161
*902 FILLER_0_13_167
*903 FILLER_0_13_169
*904 FILLER_0_13_181
*905 FILLER_0_13_193
*906 FILLER_0_13_205
*907 FILLER_0_13_217
*908 FILLER_0_13_223
*909 FILLER_0_13_225
*910 FILLER_0_13_237
*911 FILLER_0_13_249
*912 FILLER_0_13_261
*913 FILLER_0_13_27
*914 FILLER_0_13_273
*915 FILLER_0_13_279
*916 FILLER_0_13_281
*917 FILLER_0_13_293
*918 FILLER_0_13_3
*919 FILLER_0_13_305
*920 FILLER_0_13_317
*921 FILLER_0_13_329
*922 FILLER_0_13_335
*923 FILLER_0_13_337
*924 FILLER_0_13_349
*925 FILLER_0_13_361
*926 FILLER_0_13_39
*927 FILLER_0_13_51
*928 FILLER_0_13_55
*929 FILLER_0_13_57
*930 FILLER_0_13_69
*931 FILLER_0_13_81
*932 FILLER_0_13_93
*933 FILLER_0_14_109
*934 FILLER_0_14_121
*935 FILLER_0_14_133
*936 FILLER_0_14_139
*937 FILLER_0_14_141
*938 FILLER_0_14_15
*939 FILLER_0_14_153
*940 FILLER_0_14_165
*941 FILLER_0_14_177
*942 FILLER_0_14_189
*943 FILLER_0_14_195
*944 FILLER_0_14_197
*945 FILLER_0_14_209
*946 FILLER_0_14_221
*947 FILLER_0_14_233
*948 FILLER_0_14_245
*949 FILLER_0_14_251
*950 FILLER_0_14_253
*951 FILLER_0_14_265
*952 FILLER_0_14_27
*953 FILLER_0_14_277
*954 FILLER_0_14_289
*955 FILLER_0_14_29
*956 FILLER_0_14_3
*957 FILLER_0_14_301
*958 FILLER_0_14_307
*959 FILLER_0_14_309
*960 FILLER_0_14_321
*961 FILLER_0_14_333
*962 FILLER_0_14_345
*963 FILLER_0_14_357
*964 FILLER_0_14_363
*965 FILLER_0_14_41
*966 FILLER_0_14_53
*967 FILLER_0_14_65
*968 FILLER_0_14_77
*969 FILLER_0_14_83
*970 FILLER_0_14_85
*971 FILLER_0_14_97
*972 FILLER_0_15_105
*973 FILLER_0_15_111
*974 FILLER_0_15_113
*975 FILLER_0_15_125
*976 FILLER_0_15_137
*977 FILLER_0_15_149
*978 FILLER_0_15_15
*979 FILLER_0_15_161
*980 FILLER_0_15_167
*981 FILLER_0_15_169
*982 FILLER_0_15_181
*983 FILLER_0_15_193
*984 FILLER_0_15_205
*985 FILLER_0_15_217
*986 FILLER_0_15_223
*987 FILLER_0_15_225
*988 FILLER_0_15_237
*989 FILLER_0_15_249
*990 FILLER_0_15_261
*991 FILLER_0_15_27
*992 FILLER_0_15_273
*993 FILLER_0_15_279
*994 FILLER_0_15_281
*995 FILLER_0_15_293
*996 FILLER_0_15_3
*997 FILLER_0_15_305
*998 FILLER_0_15_317
*999 FILLER_0_15_329
*1000 FILLER_0_15_335
*1001 FILLER_0_15_337
*1002 FILLER_0_15_349
*1003 FILLER_0_15_361
*1004 FILLER_0_15_39
*1005 FILLER_0_15_51
*1006 FILLER_0_15_55
*1007 FILLER_0_15_57
*1008 FILLER_0_15_69
*1009 FILLER_0_15_81
*1010 FILLER_0_15_93
*1011 FILLER_0_16_109
*1012 FILLER_0_16_121
*1013 FILLER_0_16_133
*1014 FILLER_0_16_139
*1015 FILLER_0_16_141
*1016 FILLER_0_16_15
*1017 FILLER_0_16_153
*1018 FILLER_0_16_165
*1019 FILLER_0_16_177
*1020 FILLER_0_16_189
*1021 FILLER_0_16_195
*1022 FILLER_0_16_197
*1023 FILLER_0_16_209
*1024 FILLER_0_16_221
*1025 FILLER_0_16_233
*1026 FILLER_0_16_245
*1027 FILLER_0_16_251
*1028 FILLER_0_16_253
*1029 FILLER_0_16_265
*1030 FILLER_0_16_27
*1031 FILLER_0_16_277
*1032 FILLER_0_16_289
*1033 FILLER_0_16_29
*1034 FILLER_0_16_3
*1035 FILLER_0_16_301
*1036 FILLER_0_16_307
*1037 FILLER_0_16_309
*1038 FILLER_0_16_321
*1039 FILLER_0_16_333
*1040 FILLER_0_16_345
*1041 FILLER_0_16_357
*1042 FILLER_0_16_363
*1043 FILLER_0_16_41
*1044 FILLER_0_16_53
*1045 FILLER_0_16_65
*1046 FILLER_0_16_77
*1047 FILLER_0_16_83
*1048 FILLER_0_16_85
*1049 FILLER_0_16_97
*1050 FILLER_0_17_105
*1051 FILLER_0_17_111
*1052 FILLER_0_17_113
*1053 FILLER_0_17_125
*1054 FILLER_0_17_137
*1055 FILLER_0_17_149
*1056 FILLER_0_17_15
*1057 FILLER_0_17_161
*1058 FILLER_0_17_167
*1059 FILLER_0_17_169
*1060 FILLER_0_17_181
*1061 FILLER_0_17_193
*1062 FILLER_0_17_205
*1063 FILLER_0_17_217
*1064 FILLER_0_17_223
*1065 FILLER_0_17_225
*1066 FILLER_0_17_237
*1067 FILLER_0_17_249
*1068 FILLER_0_17_261
*1069 FILLER_0_17_27
*1070 FILLER_0_17_273
*1071 FILLER_0_17_279
*1072 FILLER_0_17_281
*1073 FILLER_0_17_293
*1074 FILLER_0_17_3
*1075 FILLER_0_17_305
*1076 FILLER_0_17_317
*1077 FILLER_0_17_329
*1078 FILLER_0_17_335
*1079 FILLER_0_17_337
*1080 FILLER_0_17_349
*1081 FILLER_0_17_361
*1082 FILLER_0_17_39
*1083 FILLER_0_17_51
*1084 FILLER_0_17_55
*1085 FILLER_0_17_57
*1086 FILLER_0_17_69
*1087 FILLER_0_17_81
*1088 FILLER_0_17_93
*1089 FILLER_0_18_109
*1090 FILLER_0_18_121
*1091 FILLER_0_18_133
*1092 FILLER_0_18_139
*1093 FILLER_0_18_141
*1094 FILLER_0_18_15
*1095 FILLER_0_18_153
*1096 FILLER_0_18_165
*1097 FILLER_0_18_177
*1098 FILLER_0_18_189
*1099 FILLER_0_18_195
*1100 FILLER_0_18_197
*1101 FILLER_0_18_209
*1102 FILLER_0_18_221
*1103 FILLER_0_18_233
*1104 FILLER_0_18_245
*1105 FILLER_0_18_251
*1106 FILLER_0_18_253
*1107 FILLER_0_18_265
*1108 FILLER_0_18_27
*1109 FILLER_0_18_277
*1110 FILLER_0_18_289
*1111 FILLER_0_18_29
*1112 FILLER_0_18_3
*1113 FILLER_0_18_301
*1114 FILLER_0_18_307
*1115 FILLER_0_18_309
*1116 FILLER_0_18_321
*1117 FILLER_0_18_333
*1118 FILLER_0_18_345
*1119 FILLER_0_18_357
*1120 FILLER_0_18_363
*1121 FILLER_0_18_41
*1122 FILLER_0_18_53
*1123 FILLER_0_18_65
*1124 FILLER_0_18_77
*1125 FILLER_0_18_83
*1126 FILLER_0_18_85
*1127 FILLER_0_18_97
*1128 FILLER_0_19_105
*1129 FILLER_0_19_111
*1130 FILLER_0_19_113
*1131 FILLER_0_19_125
*1132 FILLER_0_19_137
*1133 FILLER_0_19_149
*1134 FILLER_0_19_15
*1135 FILLER_0_19_161
*1136 FILLER_0_19_167
*1137 FILLER_0_19_169
*1138 FILLER_0_19_181
*1139 FILLER_0_19_193
*1140 FILLER_0_19_205
*1141 FILLER_0_19_217
*1142 FILLER_0_19_223
*1143 FILLER_0_19_225
*1144 FILLER_0_19_237
*1145 FILLER_0_19_249
*1146 FILLER_0_19_261
*1147 FILLER_0_19_27
*1148 FILLER_0_19_273
*1149 FILLER_0_19_279
*1150 FILLER_0_19_281
*1151 FILLER_0_19_293
*1152 FILLER_0_19_3
*1153 FILLER_0_19_305
*1154 FILLER_0_19_317
*1155 FILLER_0_19_329
*1156 FILLER_0_19_335
*1157 FILLER_0_19_337
*1158 FILLER_0_19_349
*1159 FILLER_0_19_361
*1160 FILLER_0_19_39
*1161 FILLER_0_19_51
*1162 FILLER_0_19_55
*1163 FILLER_0_19_57
*1164 FILLER_0_19_69
*1165 FILLER_0_19_81
*1166 FILLER_0_19_93
*1167 FILLER_0_1_105
*1168 FILLER_0_1_111
*1169 FILLER_0_1_113
*1170 FILLER_0_1_125
*1171 FILLER_0_1_137
*1172 FILLER_0_1_149
*1173 FILLER_0_1_15
*1174 FILLER_0_1_161
*1175 FILLER_0_1_167
*1176 FILLER_0_1_169
*1177 FILLER_0_1_181
*1178 FILLER_0_1_193
*1179 FILLER_0_1_205
*1180 FILLER_0_1_217
*1181 FILLER_0_1_223
*1182 FILLER_0_1_225
*1183 FILLER_0_1_237
*1184 FILLER_0_1_249
*1185 FILLER_0_1_261
*1186 FILLER_0_1_27
*1187 FILLER_0_1_273
*1188 FILLER_0_1_279
*1189 FILLER_0_1_281
*1190 FILLER_0_1_293
*1191 FILLER_0_1_3
*1192 FILLER_0_1_305
*1193 FILLER_0_1_317
*1194 FILLER_0_1_329
*1195 FILLER_0_1_335
*1196 FILLER_0_1_337
*1197 FILLER_0_1_349
*1198 FILLER_0_1_361
*1199 FILLER_0_1_39
*1200 FILLER_0_1_51
*1201 FILLER_0_1_55
*1202 FILLER_0_1_57
*1203 FILLER_0_1_69
*1204 FILLER_0_1_81
*1205 FILLER_0_1_93
*1206 FILLER_0_20_109
*1207 FILLER_0_20_121
*1208 FILLER_0_20_133
*1209 FILLER_0_20_139
*1210 FILLER_0_20_141
*1211 FILLER_0_20_15
*1212 FILLER_0_20_153
*1213 FILLER_0_20_165
*1214 FILLER_0_20_177
*1215 FILLER_0_20_189
*1216 FILLER_0_20_195
*1217 FILLER_0_20_197
*1218 FILLER_0_20_209
*1219 FILLER_0_20_221
*1220 FILLER_0_20_233
*1221 FILLER_0_20_245
*1222 FILLER_0_20_251
*1223 FILLER_0_20_253
*1224 FILLER_0_20_265
*1225 FILLER_0_20_27
*1226 FILLER_0_20_277
*1227 FILLER_0_20_289
*1228 FILLER_0_20_29
*1229 FILLER_0_20_3
*1230 FILLER_0_20_301
*1231 FILLER_0_20_307
*1232 FILLER_0_20_309
*1233 FILLER_0_20_321
*1234 FILLER_0_20_333
*1235 FILLER_0_20_345
*1236 FILLER_0_20_357
*1237 FILLER_0_20_41
*1238 FILLER_0_20_53
*1239 FILLER_0_20_65
*1240 FILLER_0_20_77
*1241 FILLER_0_20_83
*1242 FILLER_0_20_85
*1243 FILLER_0_20_97
*1244 FILLER_0_21_105
*1245 FILLER_0_21_111
*1246 FILLER_0_21_113
*1247 FILLER_0_21_125
*1248 FILLER_0_21_137
*1249 FILLER_0_21_149
*1250 FILLER_0_21_15
*1251 FILLER_0_21_161
*1252 FILLER_0_21_167
*1253 FILLER_0_21_169
*1254 FILLER_0_21_181
*1255 FILLER_0_21_193
*1256 FILLER_0_21_205
*1257 FILLER_0_21_217
*1258 FILLER_0_21_223
*1259 FILLER_0_21_225
*1260 FILLER_0_21_237
*1261 FILLER_0_21_249
*1262 FILLER_0_21_261
*1263 FILLER_0_21_27
*1264 FILLER_0_21_273
*1265 FILLER_0_21_279
*1266 FILLER_0_21_281
*1267 FILLER_0_21_293
*1268 FILLER_0_21_3
*1269 FILLER_0_21_305
*1270 FILLER_0_21_317
*1271 FILLER_0_21_329
*1272 FILLER_0_21_335
*1273 FILLER_0_21_337
*1274 FILLER_0_21_349
*1275 FILLER_0_21_361
*1276 FILLER_0_21_39
*1277 FILLER_0_21_51
*1278 FILLER_0_21_55
*1279 FILLER_0_21_57
*1280 FILLER_0_21_69
*1281 FILLER_0_21_81
*1282 FILLER_0_21_93
*1283 FILLER_0_22_109
*1284 FILLER_0_22_121
*1285 FILLER_0_22_133
*1286 FILLER_0_22_139
*1287 FILLER_0_22_141
*1288 FILLER_0_22_153
*1289 FILLER_0_22_165
*1290 FILLER_0_22_177
*1291 FILLER_0_22_18
*1292 FILLER_0_22_189
*1293 FILLER_0_22_195
*1294 FILLER_0_22_197
*1295 FILLER_0_22_209
*1296 FILLER_0_22_221
*1297 FILLER_0_22_233
*1298 FILLER_0_22_245
*1299 FILLER_0_22_251
*1300 FILLER_0_22_253
*1301 FILLER_0_22_26
*1302 FILLER_0_22_265
*1303 FILLER_0_22_277
*1304 FILLER_0_22_289
*1305 FILLER_0_22_29
*1306 FILLER_0_22_301
*1307 FILLER_0_22_307
*1308 FILLER_0_22_309
*1309 FILLER_0_22_321
*1310 FILLER_0_22_333
*1311 FILLER_0_22_345
*1312 FILLER_0_22_357
*1313 FILLER_0_22_363
*1314 FILLER_0_22_41
*1315 FILLER_0_22_53
*1316 FILLER_0_22_6
*1317 FILLER_0_22_65
*1318 FILLER_0_22_77
*1319 FILLER_0_22_83
*1320 FILLER_0_22_85
*1321 FILLER_0_22_97
*1322 FILLER_0_23_105
*1323 FILLER_0_23_111
*1324 FILLER_0_23_113
*1325 FILLER_0_23_125
*1326 FILLER_0_23_137
*1327 FILLER_0_23_149
*1328 FILLER_0_23_15
*1329 FILLER_0_23_161
*1330 FILLER_0_23_167
*1331 FILLER_0_23_169
*1332 FILLER_0_23_181
*1333 FILLER_0_23_193
*1334 FILLER_0_23_205
*1335 FILLER_0_23_217
*1336 FILLER_0_23_223
*1337 FILLER_0_23_225
*1338 FILLER_0_23_237
*1339 FILLER_0_23_249
*1340 FILLER_0_23_261
*1341 FILLER_0_23_27
*1342 FILLER_0_23_273
*1343 FILLER_0_23_279
*1344 FILLER_0_23_281
*1345 FILLER_0_23_293
*1346 FILLER_0_23_3
*1347 FILLER_0_23_305
*1348 FILLER_0_23_317
*1349 FILLER_0_23_329
*1350 FILLER_0_23_335
*1351 FILLER_0_23_337
*1352 FILLER_0_23_349
*1353 FILLER_0_23_361
*1354 FILLER_0_23_39
*1355 FILLER_0_23_51
*1356 FILLER_0_23_55
*1357 FILLER_0_23_57
*1358 FILLER_0_23_69
*1359 FILLER_0_23_81
*1360 FILLER_0_23_93
*1361 FILLER_0_24_109
*1362 FILLER_0_24_121
*1363 FILLER_0_24_133
*1364 FILLER_0_24_139
*1365 FILLER_0_24_141
*1366 FILLER_0_24_15
*1367 FILLER_0_24_153
*1368 FILLER_0_24_165
*1369 FILLER_0_24_177
*1370 FILLER_0_24_189
*1371 FILLER_0_24_195
*1372 FILLER_0_24_197
*1373 FILLER_0_24_209
*1374 FILLER_0_24_221
*1375 FILLER_0_24_233
*1376 FILLER_0_24_245
*1377 FILLER_0_24_251
*1378 FILLER_0_24_253
*1379 FILLER_0_24_265
*1380 FILLER_0_24_27
*1381 FILLER_0_24_277
*1382 FILLER_0_24_289
*1383 FILLER_0_24_29
*1384 FILLER_0_24_3
*1385 FILLER_0_24_301
*1386 FILLER_0_24_307
*1387 FILLER_0_24_309
*1388 FILLER_0_24_321
*1389 FILLER_0_24_333
*1390 FILLER_0_24_345
*1391 FILLER_0_24_357
*1392 FILLER_0_24_363
*1393 FILLER_0_24_41
*1394 FILLER_0_24_53
*1395 FILLER_0_24_65
*1396 FILLER_0_24_77
*1397 FILLER_0_24_83
*1398 FILLER_0_24_85
*1399 FILLER_0_24_97
*1400 FILLER_0_25_105
*1401 FILLER_0_25_111
*1402 FILLER_0_25_113
*1403 FILLER_0_25_125
*1404 FILLER_0_25_137
*1405 FILLER_0_25_149
*1406 FILLER_0_25_15
*1407 FILLER_0_25_161
*1408 FILLER_0_25_167
*1409 FILLER_0_25_169
*1410 FILLER_0_25_181
*1411 FILLER_0_25_193
*1412 FILLER_0_25_205
*1413 FILLER_0_25_217
*1414 FILLER_0_25_223
*1415 FILLER_0_25_225
*1416 FILLER_0_25_237
*1417 FILLER_0_25_249
*1418 FILLER_0_25_261
*1419 FILLER_0_25_27
*1420 FILLER_0_25_273
*1421 FILLER_0_25_279
*1422 FILLER_0_25_281
*1423 FILLER_0_25_293
*1424 FILLER_0_25_3
*1425 FILLER_0_25_305
*1426 FILLER_0_25_317
*1427 FILLER_0_25_329
*1428 FILLER_0_25_335
*1429 FILLER_0_25_337
*1430 FILLER_0_25_349
*1431 FILLER_0_25_361
*1432 FILLER_0_25_39
*1433 FILLER_0_25_51
*1434 FILLER_0_25_55
*1435 FILLER_0_25_57
*1436 FILLER_0_25_69
*1437 FILLER_0_25_81
*1438 FILLER_0_25_93
*1439 FILLER_0_26_109
*1440 FILLER_0_26_121
*1441 FILLER_0_26_133
*1442 FILLER_0_26_139
*1443 FILLER_0_26_141
*1444 FILLER_0_26_15
*1445 FILLER_0_26_153
*1446 FILLER_0_26_165
*1447 FILLER_0_26_177
*1448 FILLER_0_26_189
*1449 FILLER_0_26_195
*1450 FILLER_0_26_197
*1451 FILLER_0_26_209
*1452 FILLER_0_26_221
*1453 FILLER_0_26_233
*1454 FILLER_0_26_245
*1455 FILLER_0_26_251
*1456 FILLER_0_26_253
*1457 FILLER_0_26_265
*1458 FILLER_0_26_27
*1459 FILLER_0_26_277
*1460 FILLER_0_26_289
*1461 FILLER_0_26_29
*1462 FILLER_0_26_3
*1463 FILLER_0_26_301
*1464 FILLER_0_26_307
*1465 FILLER_0_26_309
*1466 FILLER_0_26_321
*1467 FILLER_0_26_333
*1468 FILLER_0_26_345
*1469 FILLER_0_26_357
*1470 FILLER_0_26_363
*1471 FILLER_0_26_41
*1472 FILLER_0_26_53
*1473 FILLER_0_26_65
*1474 FILLER_0_26_77
*1475 FILLER_0_26_83
*1476 FILLER_0_26_85
*1477 FILLER_0_26_97
*1478 FILLER_0_27_105
*1479 FILLER_0_27_111
*1480 FILLER_0_27_113
*1481 FILLER_0_27_125
*1482 FILLER_0_27_137
*1483 FILLER_0_27_149
*1484 FILLER_0_27_15
*1485 FILLER_0_27_161
*1486 FILLER_0_27_167
*1487 FILLER_0_27_169
*1488 FILLER_0_27_181
*1489 FILLER_0_27_193
*1490 FILLER_0_27_205
*1491 FILLER_0_27_217
*1492 FILLER_0_27_223
*1493 FILLER_0_27_225
*1494 FILLER_0_27_237
*1495 FILLER_0_27_249
*1496 FILLER_0_27_261
*1497 FILLER_0_27_27
*1498 FILLER_0_27_273
*1499 FILLER_0_27_279
*1500 FILLER_0_27_281
*1501 FILLER_0_27_293
*1502 FILLER_0_27_3
*1503 FILLER_0_27_305
*1504 FILLER_0_27_317
*1505 FILLER_0_27_329
*1506 FILLER_0_27_335
*1507 FILLER_0_27_337
*1508 FILLER_0_27_349
*1509 FILLER_0_27_361
*1510 FILLER_0_27_39
*1511 FILLER_0_27_51
*1512 FILLER_0_27_55
*1513 FILLER_0_27_57
*1514 FILLER_0_27_69
*1515 FILLER_0_27_81
*1516 FILLER_0_27_93
*1517 FILLER_0_28_109
*1518 FILLER_0_28_121
*1519 FILLER_0_28_133
*1520 FILLER_0_28_139
*1521 FILLER_0_28_141
*1522 FILLER_0_28_15
*1523 FILLER_0_28_153
*1524 FILLER_0_28_165
*1525 FILLER_0_28_177
*1526 FILLER_0_28_189
*1527 FILLER_0_28_195
*1528 FILLER_0_28_197
*1529 FILLER_0_28_209
*1530 FILLER_0_28_221
*1531 FILLER_0_28_233
*1532 FILLER_0_28_245
*1533 FILLER_0_28_251
*1534 FILLER_0_28_253
*1535 FILLER_0_28_265
*1536 FILLER_0_28_27
*1537 FILLER_0_28_277
*1538 FILLER_0_28_289
*1539 FILLER_0_28_29
*1540 FILLER_0_28_3
*1541 FILLER_0_28_301
*1542 FILLER_0_28_307
*1543 FILLER_0_28_309
*1544 FILLER_0_28_321
*1545 FILLER_0_28_333
*1546 FILLER_0_28_345
*1547 FILLER_0_28_357
*1548 FILLER_0_28_363
*1549 FILLER_0_28_41
*1550 FILLER_0_28_53
*1551 FILLER_0_28_65
*1552 FILLER_0_28_77
*1553 FILLER_0_28_83
*1554 FILLER_0_28_85
*1555 FILLER_0_28_97
*1556 FILLER_0_29_105
*1557 FILLER_0_29_111
*1558 FILLER_0_29_113
*1559 FILLER_0_29_125
*1560 FILLER_0_29_137
*1561 FILLER_0_29_149
*1562 FILLER_0_29_15
*1563 FILLER_0_29_161
*1564 FILLER_0_29_167
*1565 FILLER_0_29_169
*1566 FILLER_0_29_181
*1567 FILLER_0_29_193
*1568 FILLER_0_29_205
*1569 FILLER_0_29_217
*1570 FILLER_0_29_223
*1571 FILLER_0_29_225
*1572 FILLER_0_29_237
*1573 FILLER_0_29_249
*1574 FILLER_0_29_261
*1575 FILLER_0_29_27
*1576 FILLER_0_29_273
*1577 FILLER_0_29_279
*1578 FILLER_0_29_281
*1579 FILLER_0_29_293
*1580 FILLER_0_29_3
*1581 FILLER_0_29_305
*1582 FILLER_0_29_317
*1583 FILLER_0_29_329
*1584 FILLER_0_29_335
*1585 FILLER_0_29_337
*1586 FILLER_0_29_349
*1587 FILLER_0_29_361
*1588 FILLER_0_29_39
*1589 FILLER_0_29_51
*1590 FILLER_0_29_55
*1591 FILLER_0_29_57
*1592 FILLER_0_29_69
*1593 FILLER_0_29_81
*1594 FILLER_0_29_93
*1595 FILLER_0_2_109
*1596 FILLER_0_2_121
*1597 FILLER_0_2_133
*1598 FILLER_0_2_139
*1599 FILLER_0_2_141
*1600 FILLER_0_2_15
*1601 FILLER_0_2_153
*1602 FILLER_0_2_165
*1603 FILLER_0_2_177
*1604 FILLER_0_2_189
*1605 FILLER_0_2_195
*1606 FILLER_0_2_197
*1607 FILLER_0_2_209
*1608 FILLER_0_2_221
*1609 FILLER_0_2_233
*1610 FILLER_0_2_245
*1611 FILLER_0_2_251
*1612 FILLER_0_2_253
*1613 FILLER_0_2_265
*1614 FILLER_0_2_27
*1615 FILLER_0_2_277
*1616 FILLER_0_2_289
*1617 FILLER_0_2_29
*1618 FILLER_0_2_3
*1619 FILLER_0_2_301
*1620 FILLER_0_2_307
*1621 FILLER_0_2_309
*1622 FILLER_0_2_321
*1623 FILLER_0_2_333
*1624 FILLER_0_2_345
*1625 FILLER_0_2_357
*1626 FILLER_0_2_363
*1627 FILLER_0_2_41
*1628 FILLER_0_2_53
*1629 FILLER_0_2_65
*1630 FILLER_0_2_77
*1631 FILLER_0_2_83
*1632 FILLER_0_2_85
*1633 FILLER_0_2_97
*1634 FILLER_0_30_109
*1635 FILLER_0_30_121
*1636 FILLER_0_30_133
*1637 FILLER_0_30_139
*1638 FILLER_0_30_141
*1639 FILLER_0_30_15
*1640 FILLER_0_30_153
*1641 FILLER_0_30_165
*1642 FILLER_0_30_177
*1643 FILLER_0_30_189
*1644 FILLER_0_30_195
*1645 FILLER_0_30_197
*1646 FILLER_0_30_209
*1647 FILLER_0_30_221
*1648 FILLER_0_30_233
*1649 FILLER_0_30_245
*1650 FILLER_0_30_251
*1651 FILLER_0_30_253
*1652 FILLER_0_30_265
*1653 FILLER_0_30_27
*1654 FILLER_0_30_277